Input Parameters:
   integrator                     = md
   tinit                          = 0
   dt                             = 0.002
   nsteps                         = 2000000
   init-step                      = 0
   simulation-part                = 1
   comm-mode                      = Linear
   nstcomm                        = 100
   bd-fric                        = 0
   ld-seed                        = 1570371007
   emtol                          = 10
   emstep                         = 0.01
   niter                          = 20
   fcstep                         = 0
   nstcgsteep                     = 1000
   nbfgscorr                      = 10
   rtpi                           = 0.05
   nstxout                        = 0
   nstvout                        = 0
   nstfout                        = 0
   nstlog                         = 1000
   nstcalcenergy                  = 100
   nstenergy                      = 1000
   nstxout-compressed             = 250
   compressed-x-precision         = 1000
   cutoff-scheme                  = Verlet
   nstlist                        = 10
   pbc                            = xyz
   periodic-molecules             = false
   verlet-buffer-tolerance        = 0.005
   rlist                          = 0.607
   coulombtype                    = PME
   coulomb-modifier               = Potential-shift
   rcoulomb-switch                = 0
   rcoulomb                       = 0.6
   epsilon-r                      = 1
   epsilon-rf                     = inf
   vdw-type                       = Cut-off
   vdw-modifier                   = Potential-shift
   rvdw-switch                    = 0
   rvdw                           = 0.6
   DispCorr                       = AllEnerPres
   table-extension                = 1
   fourierspacing                 = 0.12
   fourier-nx                     = 14
   fourier-ny                     = 14
   fourier-nz                     = 14
   pme-order                      = 4
   ewald-rtol                     = 1e-05
   ewald-rtol-lj                  = 0.001
   lj-pme-comb-rule               = Geometric
   ewald-geometry                 = 0
   epsilon-surface                = 0
   tcoupl                         = V-rescale
   nsttcouple                     = 10
   nh-chain-length                = 0
   print-nose-hoover-chain-variables = false
   pcoupl                         = Parrinello-Rahman
   pcoupltype                     = Isotropic
   nstpcouple                     = 10
   tau-p                          = 1
   compressibility (3x3):
      compressibility[    0]={ 4.50000e-05,  0.00000e+00,  0.00000e+00}
      compressibility[    1]={ 0.00000e+00,  4.50000e-05,  0.00000e+00}
      compressibility[    2]={ 0.00000e+00,  0.00000e+00,  4.50000e-05}
   ref-p (3x3):
      ref-p[    0]={ 1.01325e+00,  0.00000e+00,  0.00000e+00}
      ref-p[    1]={ 0.00000e+00,  1.01325e+00,  0.00000e+00}
      ref-p[    2]={ 0.00000e+00,  0.00000e+00,  1.01325e+00}
   refcoord-scaling               = No
   posres-com (3):
      posres-com[0]= 0.00000e+00
      posres-com[1]= 0.00000e+00
      posres-com[2]= 0.00000e+00
   posres-comB (3):
      posres-comB[0]= 0.00000e+00
      posres-comB[1]= 0.00000e+00
      posres-comB[2]= 0.00000e+00
   QMMM                           = false
   QMconstraints                  = 0
   QMMMscheme                     = 0
   MMChargeScaleFactor            = 1
qm-opts:
   ngQM                           = 0
   constraint-algorithm           = Lincs
   continuation                   = false
   Shake-SOR                      = false
   shake-tol                      = 0.0001
   lincs-order                    = 4
   lincs-iter                     = 1
   lincs-warnangle                = 30
   nwall                          = 0
   wall-type                      = 9-3
   wall-r-linpot                  = -1
   wall-atomtype[0]               = -1
   wall-atomtype[1]               = -1
   wall-density[0]                = 0
   wall-density[1]                = 0
   wall-ewald-zfac                = 3
   pull                           = false
   awh                            = false
   rotation                       = false
   interactiveMD                  = false
   disre                          = No
   disre-weighting                = Conservative
   disre-mixed                    = false
   dr-fc                          = 1000
   dr-tau                         = 0
   nstdisreout                    = 100
   orire-fc                       = 0
   orire-tau                      = 0
   nstorireout                    = 100
   free-energy                    = no
   cos-acceleration               = 0
   deform (3x3):
      deform[    0]={ 0.00000e+00,  0.00000e+00,  0.00000e+00}
      deform[    1]={ 0.00000e+00,  0.00000e+00,  0.00000e+00}
      deform[    2]={ 0.00000e+00,  0.00000e+00,  0.00000e+00}
   simulated-tempering            = false
   swapcoords                     = no
   userint1                       = 0
   userint2                       = 0
   userint3                       = 0
   userint4                       = 0
   userreal1                      = 0
   userreal2                      = 0
   userreal3                      = 0
   userreal4                      = 0
   applied-forces:
     electric-field:
       x:
         E0                       = 0
         omega                    = 0
         t0                       = 0
         sigma                    = 0
       y:
         E0                       = 0
         omega                    = 0
         t0                       = 0
         sigma                    = 0
       z:
         E0                       = 0
         omega                    = 0
         t0                       = 0
         sigma                    = 0
     density-guided-simulation:
       active                     = false
       group                      = protein
       similarity-measure         = inner-product
       atom-spreading-weight      = unity
       force-constant             = 1e+09
       gaussian-transform-spreading-width = 0.2
       gaussian-transform-spreading-range-in-multiples-of-width = 4
       reference-density-filename = reference.mrc
       nst                        = 1
       normalize-densities        = true
       adaptive-force-scaling     = false
       adaptive-force-scaling-time-constant = 4
grpopts:
   nrdf:         645
   ref-t:         300
   tau-t:           1
annealing:          No
annealing-npoints:           0
   acc:	           0           0           0
   nfreeze:           N           N           N
   energygrp-flags[  0]: 0

Changing nstlist from 10 to 25, rlist from 0.607 to 0.67

Initializing Domain Decomposition on 2 ranks
Dynamic load balancing: auto
The combination of rlist and box size prohibits the use of update groups
Minimum cell size due to atom displacement: 0.295 nm
Initial maximum distances in bonded interactions:
    two-body bonded interactions: 0.152 nm, Exclusion, atoms 254 255
Minimum cell size due to bonded interactions: 0.000 nm
Scaling the initial minimum size with 1/0.8 (option -dds) = 1.25
Using 0 separate PME ranks, as there are too few total
 ranks for efficient splitting
Optimizing the DD grid for 2 cells with a minimum initial size of 0.369 nm
The maximum allowed number of cells is: X 4 Y 4 Z 4
Domain decomposition grid 2 x 1 x 1, separate PME ranks 0
PME domain decomposition: 2 x 1 x 1
Domain decomposition rank 0, coordinates 0 0 0

The initial number of communication pulses is: X 1
The initial domain decomposition cell size is: X 0.74 nm

The maximum allowed distance for atoms involved in interactions is:
                 non-bonded interactions           0.670 nm
(the following are initial values, they could change due to box deformation)
            two-body bonded interactions  (-rdd)   0.670 nm
          multi-body bonded interactions  (-rdd)   0.670 nm
  atoms separated by up to 5 constraints  (-rcon)  0.743 nm

When dynamic load balancing gets turned on, these settings will change to:
The maximum number of communication pulses is: X 1
The minimum size for domain decomposition cells is 0.670 nm
The requested allowed shrink of DD cells (option -dds) is: 0.80
The allowed shrink of domain decomposition cells is: X 0.90
The maximum allowed distance for atoms involved in interactions is:
                 non-bonded interactions           0.670 nm
            two-body bonded interactions  (-rdd)   0.670 nm
          multi-body bonded interactions  (-rdd)   0.670 nm
  atoms separated by up to 5 constraints  (-rcon)  0.670 nm

Using 2 MPI processes
Using 2 OpenMP threads per MPI process

System total charge: 0.000
Will do PME sum in reciprocal space for electrostatic interactions.

Using a Gaussian width (1/beta) of 0.192098 nm for Ewald
Potential shift: LJ r^-12: -4.594e+02 r^-6: -2.143e+01, Ewald -1.667e-05
Initialized non-bonded Ewald tables, spacing: 7.23e-04 size: 832

Using SIMD 4x4 nonbonded short-range kernels

Using a dual 4x4 pair-list setup updated with dynamic pruning:
  outer list: updated every 25 steps, buffer 0.070 nm, rlist 0.670 nm
  inner list: updated every  8 steps, buffer 0.002 nm, rlist 0.602 nm
At tolerance 0.005 kJ/mol/ps per atom, equivalent classical 1x1 list would be:
  outer list: updated every 25 steps, buffer 0.144 nm, rlist 0.744 nm
  inner list: updated every  8 steps, buffer 0.026 nm, rlist 0.626 nm

Using geometric Lennard-Jones combination rule

Long Range LJ corr.: <C6> 2.8653e-04 <C12> 3.0191e-07

Removing pbc first time

Linking all bonded interactions to atoms

Intra-simulation communication will occur every 5 steps.

There are: 323 Atoms
Atom distribution over 2 domains: av 161 stddev 15 min 153 max 170

Constraining the starting coordinates (step 0)

Constraining the coordinates at t0-dt (step 0)
Center of mass motion removal mode is Linear
We have the following groups for center of mass motion removal:
  0:  rest
RMS relative constraint deviation after constraining: 0.00e+00
Initial temperature: 285.268 K

PLUMED: PLUMED is starting
PLUMED: Version: 2.8.0 (git: ddb59d16b) compiled on May 17 2022 at 19:12:31
PLUMED: Please cite these papers when using PLUMED [1][2]
PLUMED: For further information see the PLUMED web page at http://www.plumed.org
PLUMED: Root: /usr/local/anaconda3/envs/plumed-masterclass-2022/lib/plumed
PLUMED: For installed feature, see /usr/local/anaconda3/envs/plumed-masterclass-2022/lib/plumed/src/config/config.txt
PLUMED: Molecular dynamics engine: gromacs
PLUMED: Precision of reals: 4
PLUMED: Running over 2 nodes
PLUMED: Number of threads: 2
PLUMED: Cache line size: 512
PLUMED: Number of atoms: 323
PLUMED: File suffix:
PLUMED: FILE: plumed.dat
PLUMED: Action DISTANCE
PLUMED:   with label dist
PLUMED:   between atoms 322 323
PLUMED:   using periodic boundary conditions
PLUMED: Action COORDINATION
PLUMED:   with label coord
PLUMED:   between two groups of 1 and 107 atoms
PLUMED:   first group:
PLUMED:   322
PLUMED:   second group:
PLUMED:   1  4  7  10  13  16  19  22  25  28  31  34  37  40  43  46  49  52  55  58  61  64  67  70
PLUMED:   73  76  79  82  85  88  91  94  97  100  103  106  109  112  115  118  121  124  127  130  133  136  139  142  145
PLUMED:   148  151  154  157  160  163  166  169  172  175  178  181  184  187  190  193  196  199  202  205  208  211  214  217  220
PLUMED:   223  226  229  232  235  238  241  244  247  250  253  256  259  262  265  268  271  274  277  280  283  286  289  292  295
PLUMED:   298  301  304  307  310  313  316  319
PLUMED:   using periodic boundary conditions
PLUMED:   using neighbor lists with
PLUMED:   update every 10 steps and cutoff 0.550000
PLUMED:   contacts are counted with cutoff 0.315.  Using rational switching function with parameters d0=0 nn=12 mm=24
PLUMED: Action BF_LEGENDRE
PLUMED:   with label bf1
PLUMED:   One-dimensional basis set
PLUMED:    Description: Legendre polynomials
PLUMED:    Type: Legendre
PLUMED:    Order of basis set: 20
PLUMED:    Number of basis functions: 21
PLUMED:    Interval of basis set: 0.2 to 0.7
PLUMED:    Description of basis functions:
PLUMED:      0            L0(s)
PLUMED:      1            L1(s)
PLUMED:      2            L2(s)
PLUMED:      3            L3(s)
PLUMED:      4            L4(s)
PLUMED:      5            L5(s)
PLUMED:      6            L6(s)
PLUMED:      7            L7(s)
PLUMED:      8            L8(s)
PLUMED:      9            L9(s)
PLUMED:     10           L10(s)
PLUMED:     11           L11(s)
PLUMED:     12           L12(s)
PLUMED:     13           L13(s)
PLUMED:     14           L14(s)
PLUMED:     15           L15(s)
PLUMED:     16           L16(s)
PLUMED:     17           L17(s)
PLUMED:     18           L18(s)
PLUMED:     19           L19(s)
PLUMED:     20           L20(s)
PLUMED: Action TD_WELLTEMPERED
PLUMED:   with label td
PLUMED:   Well-tempered target distribution, see and cite [3][4]
PLUMED: Action VES_LINEAR_EXPANSION
PLUMED:   with label ves
PLUMED:   with arguments dist
PLUMED:   added component to this action:  ves.bias
PLUMED:   VES bias, please read and cite [5]
PLUMED:   KbT: 2.494339
PLUMED:   Employing a threshold value of 1.000000e-06 for optimization of localized basis functions.
PLUMED:   using target distribution of type TD_WELLTEMPERED with label td
PLUMED:   added component to this action:  ves.force2
PLUMED: Action OPT_AVERAGED_SGD
PLUMED:   with label opt
PLUMED:   with stride 500
PLUMED:   optimizing VES bias VES_LINEAR_EXPANSION with label ves:
PLUMED:    KbT: 2.494339
PLUMED:   number of coefficients: 21
PLUMED:   using a constant step size of 5.000000
PLUMED:   the target distribution will be updated very 100 coefficient iterations
PLUMED:   See and cite [3]
PLUMED:   Coefficients will be written out to file coeffs.data every 10 iterations
PLUMED:   Output Components:
PLUMED:    Averaged stochastic gradient decent, see and cite [6]
PLUMED:   Optimization performed using diagonal Hessian matrix
PLUMED: Action UPPER_WALLS
PLUMED:   with label uwall
PLUMED:   with arguments dist
PLUMED:   added component to this action:  uwall.bias
PLUMED:   at 0.600000
PLUMED:   with an offset 0.000000
PLUMED:   with force constant 4000.000000
PLUMED:   and exponent 2.000000
PLUMED:   rescaled 1.000000
PLUMED:   added component to this action:  uwall.force2
PLUMED: Action PRINT
PLUMED:   with label @7
PLUMED:   with stride 125
PLUMED:   with arguments dist coord ves.bias ves.force2 uwall.bias uwall.force2
PLUMED:   on file colvar.data
PLUMED:   with format  %f
PLUMED: END FILE: plumed.dat
PLUMED: Timestep: 0.002000
PLUMED: KbT: 2.494339
PLUMED: Relevant bibliography:
PLUMED:   [1] The PLUMED consortium, Nat. Methods 16, 670 (2019)
PLUMED:   [2] Tribello, Bonomi, Branduardi, Camilloni, and Bussi, Comput. Phys. Commun. 185, 604 (2014)
PLUMED:   [3] Valsson and Parrinello, J. Chem. Theory Comput. 11, 1996-2002 (2015)
PLUMED:   [4] Barducci, Bussi, and Parrinello, Phys. Rev. Lett. 100, 020603 (2008)
PLUMED:   [5] Valsson and Parrinello, Phys. Rev. Lett. 113, 090601 (2014)
PLUMED:   [6] Bach and Moulines, NIPS 26, 773-781 (2013)
PLUMED: Please read and cite where appropriate!
PLUMED: Finished setup
Started mdrun on rank 0 Sun Jul 10 15:27:03 2022

           Step           Time
              0        0.00000

   Energies (kJ/mol)
        LJ (SR)  Disper. corr.   Coulomb (SR)   Coul. recip.      Potential
    8.58019e+02   -1.73177e+02   -6.15741e+03    3.72829e+02   -5.09974e+03
    Kinetic En.   Total Energy  Conserved En.    Temperature Pres. DC (bar)
    7.66048e+02   -4.33369e+03   -4.33349e+03    2.85688e+02   -8.81959e+02
   -2.89165e+02

	<====  A V E R A G E S  ====>

	Statistics over 2000001 steps using 20001 frames

   Energies (kJ/mol)
        LJ (SR)  Disper. corr.   Coulomb (SR)   Coul. recip.      Potential
    8.49518e+02   -1.70841e+02   -6.10493e+03    3.74220e+02   -5.05203e+03
    Kinetic En.   Total Energy  Conserved En.    Temperature Pres. DC (bar)
    8.06335e+02   -4.24570e+03   -2.05662e+03    3.00713e+02   -8.59242e+02
 Pressure (bar)
    5.70707e+00

          Box-X          Box-Y          Box-Z
    1.49262e+00    1.49262e+00    1.49262e+00

   Total Virial (kJ/mol)
    2.72081e+02    1.17611e+00   -1.68693e-01
    1.65908e+00    2.68672e+02   -1.21956e+00
    3.89729e-01   -3.75969e-01    2.68503e+02

   Pressure (bar)
   -1.88044e+01   -1.24643e+01    1.27083e+00
   -1.71743e+01    1.86585e+01    1.23218e+01
   -4.04404e+00    3.92137e+00    1.72672e+01
